Version 4
SHEET 1 1208 680
WIRE 176 0 176 -32
WIRE 688 16 688 -16
WIRE 336 48 320 48
WIRE 176 112 176 80
WIRE 176 112 128 112
WIRE 0 128 -64 128
WIRE 416 128 416 48
WIRE 448 128 416 128
WIRE 688 128 688 96
WIRE 688 128 624 128
WIRE 1072 128 1072 96
WIRE 1072 128 1024 128
WIRE 160 144 128 144
WIRE 448 144 448 128
WIRE 496 144 448 144
WIRE 896 144 800 144
WIRE -208 160 -224 160
WIRE 0 160 -128 160
WIRE 704 160 624 160
WIRE 1056 160 1024 160
WIRE 224 176 128 176
WIRE 368 176 224 176
WIRE 464 176 448 176
WIRE 496 176 464 176
WIRE 896 176 720 176
WIRE 640 192 624 192
WIRE 672 192 640 192
WIRE 720 192 720 176
WIRE 720 192 672 192
WIRE 736 192 720 192
WIRE 1136 192 1024 192
WIRE 224 208 224 176
WIRE -64 320 -64 128
WIRE 224 320 224 288
WIRE 224 320 -64 320
WIRE 464 320 464 176
WIRE 528 320 464 320
WIRE 640 320 640 192
WIRE 640 320 592 320
WIRE 224 352 224 320
WIRE 224 448 224 432
WIRE 672 448 672 192
WIRE 672 448 224 448
FLAG 704 160 0
FLAG 688 -16 0
FLAG 320 48 0
FLAG 736 192 out
FLAG 800 64 0
FLAG 1056 160 0
FLAG 1072 16 0
FLAG 1136 192 out2
FLAG 160 144 0
FLAG 176 -32 0
FLAG -224 160 0
SYMBOL OPAx197 560 160 R0
SYMATTR InstName U2
SYMBOL voltage 688 112 R180
WINDOW 0 24 96 Left 2
WINDOW 3 24 16 Left 2
WINDOW 123 0 0 Left 0
WINDOW 39 0 0 Left 0
SYMATTR InstName V1
SYMATTR Value 5
SYMBOL cap 592 304 R90
WINDOW 0 0 32 VBottom 2
WINDOW 3 32 32 VTop 2
SYMATTR InstName C1
SYMATTR Value 2.2nF
SYMBOL res 464 160 R90
WINDOW 0 0 56 VBottom 2
WINDOW 3 32 56 VTop 2
SYMATTR InstName R1
SYMATTR Value 1100
SYMBOL voltage 432 48 R90
WINDOW 0 -32 56 VBottom 2
WINDOW 3 32 56 VTop 2
WINDOW 123 0 0 Left 0
WINDOW 39 0 0 Left 0
SYMATTR InstName V3
SYMATTR Value 2.5
SYMBOL TLV3231 960 160 R0
SYMATTR InstName U1
SYMBOL voltage 800 160 R180
WINDOW 0 24 96 Left 2
WINDOW 3 -125 148 Left 2
WINDOW 123 0 0 Left 0
WINDOW 39 0 0 Left 0
SYMATTR InstName V4
SYMATTR Value SINE(2.5 2.4 2k)
SYMBOL voltage 1072 112 R180
WINDOW 0 24 96 Left 2
WINDOW 3 24 16 Left 2
WINDOW 123 0 0 Left 0
WINDOW 39 0 0 Left 0
SYMATTR InstName V5
SYMATTR Value 5
SYMBOL TLV3231 64 144 R0
SYMATTR InstName U3
SYMBOL res 208 192 R0
SYMATTR InstName R2
SYMATTR Value 10K
SYMBOL res 208 336 R0
SYMATTR InstName R3
SYMATTR Value 10k
SYMBOL voltage 176 96 R180
WINDOW 0 24 96 Left 2
WINDOW 3 24 16 Left 2
WINDOW 123 0 0 Left 0
WINDOW 39 0 0 Left 0
SYMATTR InstName V2
SYMATTR Value 5
SYMBOL voltage -112 160 R90
WINDOW 0 -32 56 VBottom 2
WINDOW 3 32 56 VTop 2
WINDOW 123 0 0 Left 0
WINDOW 39 0 0 Left 0
SYMATTR InstName V6
SYMATTR Value 2.5
TEXT 400 -128 Left 2 !.tran 0 550u 50u
TEXT 904 -56 Left 2 ;Duty Cycle control
TEXT 504 0 Left 2 ;Intergrtor
TEXT -144 -24 Left 2 ;Square wave generator
